14
KNF: 
Zr  14.284633   6.597047   0.299259
Cu  15.588582   7.339610  -2.312163
Cu  14.164800   4.857605  -2.194585
Cu  12.519637   9.515322   0.347131
Cu  11.652081   7.322794  -0.365327
Zr  13.776594   3.537630   0.421036
Cu  11.386541   5.940560   1.487013
Cu  16.284075   5.767507  -0.834315
Zr  16.240604   5.652443   1.976787
Zr  13.136713   5.544873   3.031318
Cu  12.771957   6.688138  -2.165368
Zr  14.990719   9.353877  -1.017328
Zr  13.526746   8.401214   2.304693
Al  16.025795   7.877112   2.979800
