12
KNF: 
Cu   5.337492   8.810012   5.041977
Zr   3.718189   5.956786   5.225037
Cu   6.261983   5.757018   5.469575
Zr   2.291961   7.863207   5.550298
Al   3.997375   7.877112   2.979800
Zr   6.945595   7.742237   3.630502
Cu   6.371195   9.900027   2.691383
Zr   3.830541  10.499644   4.147111
Zr   7.683304  11.126445   5.182312
Zr   7.556999   8.362374   6.659992
Cu   4.717345   8.000932   7.376152
Zr   4.960526  10.507871   7.042399
