14
KNF: 
Zr  11.066543   4.301002  11.278520
Zr   9.157525   1.628143   9.622544
Zr  10.969059   4.120684   8.117223
Cu  11.386541   5.940560  13.515433
Zr   8.538578   5.023934  12.456846
Cu  14.164800   4.857605   9.833835
Cu  12.067741   2.642740   9.624396
Cu   8.206558   3.540373  10.006455
Cu  12.771957   6.688138   9.863052
Cu   9.945398   6.111279   9.836962
Zr  10.960194   1.022091  11.757696
Zr  13.776594   3.537630  12.449456
Cu  11.215684   3.232229  13.590262
Cu  11.652081   7.322794  11.663093
