12
KNF: 
Cu   9.741252   9.859792   9.095807
Cu   9.274952   7.625742   8.345210
Zr   7.556999   8.362374   6.659992
Zr   6.768338   8.103727   9.451884
Zr  10.539705  11.643066   7.040655
Zr  12.079285  12.349044   9.881359
Cu   7.590131  10.537365   8.064490
Cu   9.540284  12.817898   8.934963
Zr   9.321659   8.292669  11.295324
Zr  12.140465   9.210354   9.452053
Cu  11.057119   9.376021   6.970542
Zr   8.457784  10.919015  10.960080
