11
KNF: 
Cu   8.206558   3.540373  10.006455
Zr   9.157525   1.628143   9.622544
Zr  10.969059   4.120684   8.117223
Zr   7.538036   2.188246   7.206383
Zr   7.864416   5.068716   7.579444
Cu   5.848687   2.729850   9.071185
Zr   8.152526   1.974080  12.625910
Zr  11.066543   4.301002  11.278520
Zr   8.538578   5.023934  12.456846
Zr   6.739157   5.465245  10.207353
Cu   9.945398   6.111279   9.836962
