14
KNF: 
Zr   4.212184   5.652443   1.976787
Cu   5.271473   4.269885   0.552530
Cu   3.213194   2.739581   1.885876
Cu   4.605081   3.952058   4.051569
Zr   1.748174   3.537630   0.421036
Cu   4.255655   5.767507  -0.834315
Zr   2.256213   6.597047   0.299259
Cu   7.084156   6.563873   0.892948
Zr   5.626552   8.416851   0.207562
Zr   1.108293   5.544873   3.031318
Al   7.411726   5.462310   3.015453
Zr   5.881320   2.689531   2.532187
Zr   3.718189   5.956786   5.225037
Al   3.997375   7.877112   2.979800
