13
KNF: Cu95-Cu94, 
Cu  16.236058   9.638084   1.532084
Zr  17.654972   8.416851   0.207562
Cu  13.989516  11.459849  -0.769759
Cu  18.063977  11.080436  -0.243197
Zr  13.526746   8.401214   2.304693
Al  16.025795   7.877112   2.979800
Cu  18.399615   9.900027   2.691383
Cu  12.994735  10.667236   2.886953
Zr  15.605708  12.987084   2.819317
Zr  18.354277  12.382758   2.274658
Zr  14.990719   9.353877  -1.017328
Cu  15.049129  10.947402   1.204358
Zr  15.858961  10.499644   4.147111
