12
KNF: 
Cu   7.084156   6.563873   0.892948
Zr   5.626552   8.416851   0.207562
Zr   8.538578   5.023934   0.428426
Zr   6.739157   5.465245  -1.821067
Cu   4.255655   5.767507  -0.834315
Zr   4.212184   5.652443   1.976787
Cu   5.271473   4.269885   0.552530
Al   7.411726   5.462310   3.015453
Cu   8.483699   9.212531   1.285537
Zr   9.321659   8.292669  -0.733096
Zr   6.945595   7.742237   3.630502
Zr  10.248954   7.941921   2.168460
