14
KNF: 
Cu   6.261983   5.757018   5.469575
Cu   4.717345   8.000932   7.376152
Zr   4.514350   2.632997   6.563151
Zr   4.901593   5.540242   7.963957
Cu   5.337492   8.810012   5.041977
Cu   7.117962   3.963364   5.029347
Al   7.411726   5.462310   3.015453
Zr   3.718189   5.956786   5.225037
Cu   4.605081   3.952058   4.051569
Cu   9.717057   4.605814   5.893421
Zr   9.231728   6.947519   5.283038
Zr   6.945595   7.742237   3.630502
Zr   7.864416   5.068716   7.579444
Zr   7.556999   8.362374   6.659992
