14
KNF: 
Cu  14.522176   8.634433   8.434352
Zr  12.140465   9.210354   9.452053
Zr  11.524958   6.965586   7.451065
Cu  15.588582   7.339610   9.716257
Cu  17.430891   9.672413   9.570160
Cu  16.745765   8.000932   7.376152
Cu  13.289462  11.561080   7.846114
Cu  14.109295   5.991777   7.722931
Zr  14.320381   7.863207   5.550298
Cu  13.902670   9.911526   6.882915
Cu  12.771957   6.688138   9.863052
Cu  15.180479  11.027776   9.158475
Zr  16.988946  10.507871   7.042399
Zr  14.990719   9.353877  11.011092
