13
KNF: 
Zr   5.881320   2.689531   2.532187
Zr   4.212184   5.652443   1.976787
Cu   5.271473   4.269885   0.552530
Cu   3.213194   2.739581   1.885876
Cu   2.920994   1.582483   4.058088
Cu   4.605081   3.952058   4.051569
Zr   4.948101   1.850681  -0.294023
Zr   8.152526   1.974080   0.597490
Cu   4.817481   0.811997   4.623496
Cu   6.273650   0.445796   2.865543
Cu   7.117962   3.963364   5.029347
Al   7.411726   5.462310   3.015453
Cu   7.547346   2.078764   4.407105
