15
KNF: 
Zr   9.591498   0.958664   2.819317
Zr   8.152526   1.974080   0.597490
Cu   6.273650   0.445796   2.865543
Cu  10.221848  -2.390336   1.532084
Cu   9.034919  -1.081018   1.204358
Zr  10.960194   1.022091  -0.270724
Cu  11.215684   3.232229   1.561842
Zr   9.844751  -1.528776   4.147111
Cu  12.202233   1.058722   5.240277
Zr   7.437473  -0.288706   5.289486
Cu   6.980525  -1.361184   2.886953
Zr  12.340067   0.354338   2.274658
Zr  10.584595   2.707080   5.173399
Zr   9.505411   4.205328   3.137818
Cu   7.547346   2.078764   4.407105
