13
KNF: 
Cu   9.717057   4.605814   5.893421
Zr   7.538036   2.188246   7.206383
Zr   7.864416   5.068716   7.579444
Zr   9.231728   6.947519   5.283038
Zr   9.505411   4.205328   3.137818
Cu   7.547346   2.078764   4.407105
Cu   6.261983   5.757018   5.469575
Cu   7.117962   3.963364   5.029347
Cu  12.399401   5.233541   5.763490
Zr  10.584595   2.707080   5.173399
Cu  11.397758   6.522603   4.224104
Zr  10.969059   4.120684   8.117223
Zr  11.524958   6.965586   7.451065
