12
KNF: 
Zr   6.739157   5.465245  10.207353
Cu   3.560162   7.339610   9.716257
Zr   6.768338   8.103727   9.451884
Zr   7.864416   5.068716   7.579444
Cu   5.848687   2.729850   9.071185
Zr   4.901593   5.540242   7.963957
Zr   8.538578   5.023934  12.456846
Cu   4.255655   5.767507  11.194105
Cu   5.271473   4.269885  12.580950
Cu   8.206558   3.540373  10.006455
Cu   9.945398   6.111279   9.836962
Cu   7.084156   6.563873  12.921368
