16
KNF: 
Zr  10.969059   4.120684   8.117223
Zr   9.157525   1.628143   9.622544
Zr   7.864416   5.068716   7.579444
Cu   9.717057   4.605814   5.893421
Cu  12.399401   5.233541   5.763490
Zr  10.584595   2.707080   5.173399
Zr  10.339861   0.871946   7.238715
Cu  14.109295   5.991777   7.722931
Cu  14.164800   4.857605   9.833835
Zr  13.661964   3.311208   6.983737
Cu  12.067741   2.642740   9.624396
Cu   8.206558   3.540373  10.006455
Cu  12.771957   6.688138   9.863052
Cu   9.945398   6.111279   9.836962
Zr  11.524958   6.965586   7.451065
Zr  11.066543   4.301002  11.278520
