11
KNF: 
Cu  12.346319   9.010273   4.585186
Cu  11.397758   6.522603   4.224104
Zr  10.248954   7.941921   2.168460
Zr   9.954570   9.960265   4.108620
Zr  14.320381   7.863207   5.550298
Zr  13.526746   8.401214   2.304693
Zr  13.451683  11.739714   5.289486
Cu  12.994735  10.667236   2.886953
Cu  13.902670   9.911526   6.882915
Cu  11.057119   9.376021   6.970542
Zr  11.524958   6.965586   7.451065
