13
KNF: 
Cu   1.619707   0.735096   7.113451
Cu   2.920994   1.582483   4.058088
Cu   0.173813   1.058722   5.240277
Zr   1.669094  -0.901975   5.182312
Zr  -1.053684  -1.520549   7.042399
Zr  -1.688559   0.871946   7.238715
Zr   4.525495  -0.385354   7.040655
Cu   1.575921  -1.491055   8.064490
Cu   3.526074   0.789478   8.934963
Zr   0.412153   0.393558   9.571014
Zr   1.633544   3.311208   6.983737
Cu   0.039321   2.642740   9.624396
Zr   4.514350   2.632997   6.563151
