13
KNF: 
Cu  12.067741   2.642740   9.624396
Zr  10.339861   0.871946   7.238715
Zr   9.157525   1.628143   9.622544
Zr  12.440573   0.393558   9.571014
Cu  13.648127   0.735096   7.113451
Zr  10.969059   4.120684   8.117223
Zr  15.212337   3.035023   9.701089
Cu  14.060748   1.231361  11.862861
Zr  11.066543   4.301002  11.278520
Cu  14.164800   4.857605   9.833835
Zr  13.661964   3.311208   6.983737
Zr  10.960194   1.022091  11.757696
Zr  13.776594   3.537630  12.449456
