13
KNF: 
Zr   9.954570   9.960265   4.108620
Cu   8.483699   9.212531   1.285537
Zr   9.231728   6.947519   5.283038
Cu  12.287860  12.474216   2.865543
Cu  10.831691  12.840417   4.623496
Zr   7.683304  11.126445   5.182312
Zr   9.066320  11.799797   2.150718
Cu  12.346319   9.010273   4.585186
Cu  11.397758   6.522603   4.224104
Zr  10.248954   7.941921   2.168460
Cu  12.994735  10.667236   2.886953
Cu  11.057119   9.376021   6.970542
Zr  10.539705  11.643066   7.040655
