14
KNF: 
Cu   2.920994   1.582483   4.058088
Cu   3.213194   2.739581   1.885876
Zr   3.052110  -0.228623   2.150718
Cu   0.173813   1.058722   5.240277
Zr   0.311647   0.354338   2.274658
Cu   4.817481   0.811997   4.623496
Zr   1.669094  -0.901975   5.182312
Cu   6.273650   0.445796   2.865543
Zr   1.475094   3.269000   3.686891
Zr   5.881320   2.689531   2.532187
Cu   4.605081   3.952058   4.051569
Cu   1.619707   0.735096   7.113451
Zr   1.633544   3.311208   6.983737
Zr   4.514350   2.632997   6.563151
