14
KNF: 
Zr  12.340067   0.354338   2.274658
Cu  12.049767  -0.947984  -0.243197
Cu  14.060748   1.231361  -0.165559
Cu  11.215684   3.232229   1.561842
Cu  12.385405  -2.128393   2.691383
Zr   9.591498   0.958664   2.819317
Zr  13.697514  -0.901975   5.182312
Cu  14.949414   1.582483   4.058088
Zr  15.080530  -0.228623   2.150718
Zr  13.503514   3.269000   3.686891
Cu  10.221848  -2.390336   1.532084
Zr  10.960194   1.022091  -0.270724
Zr   9.844751  -1.528776   4.147111
Cu  12.202233   1.058722   5.240277
