14
KNF: 
Cu   6.273650   0.445796   2.865543
Cu   2.920994   1.582483   4.058088
Zr   3.052110  -0.228623   2.150718
Zr   5.881320   2.689531   2.532187
Zr   5.325932  -0.813963   0.631380
Zr   4.948101   1.850681  -0.294023
Cu   9.034919  -1.081018   1.204358
Zr   8.152526   1.974080   0.597490
Zr   3.940360  -2.068155   4.108620
Cu   4.817481   0.811997   4.623496
Zr   7.437473  -0.288706   5.289486
Cu   6.980525  -1.361184   2.886953
Zr   9.591498   0.958664   2.819317
Cu   7.547346   2.078764   4.407105
