13
KNF: 
Zr   3.718189   5.956786   5.225037
Zr   4.212184   5.652443   1.976787
Cu   4.605081   3.952058   4.051569
Cu   0.370981   5.233541   5.763490
Zr   1.108293   5.544873   3.031318
Cu   6.261983   5.757018   5.469575
Zr   2.291961   7.863207   5.550298
Al   3.997375   7.877112   2.979800
Cu   5.337492   8.810012   5.041977
Cu   2.080875   5.991777   7.722931
Zr   4.514350   2.632997   6.563151
Zr   4.901593   5.540242   7.963957
Cu   4.717345   8.000932   7.376152
