12
KNF: 
Cu  11.386541   5.940560   1.487013
Zr   8.538578   5.023934   0.428426
Zr  13.776594   3.537630   0.421036
Cu  11.215684   3.232229   1.561842
Zr  11.066543   4.301002  -0.749900
Zr  14.284633   6.597047   0.299259
Cu  11.652081   7.322794  -0.365327
Zr  13.136713   5.544873   3.031318
Zr   9.505411   4.205328   3.137818
Zr  13.526746   8.401214   2.304693
Cu  11.397758   6.522603   4.224104
Zr  10.248954   7.941921   2.168460
