13
KNF: 
Zr  10.339861   0.871946   7.238715
Cu   7.275252  -0.467340   7.846114
Zr   9.157525   1.628143   9.622544
Zr  12.440573   0.393558   9.571014
Cu  13.648127   0.735096   7.113451
Zr  10.969059   4.120684   8.117223
Zr   7.538036   2.188246   7.206383
Cu  12.202233   1.058722   5.240277
Zr   7.437473  -0.288706   5.289486
Zr  10.584595   2.707080   5.173399
Cu   9.166269  -1.000644   9.158475
Zr  10.974736  -1.520549   7.042399
Cu  12.067741   2.642740   9.624396
