13
KNF: 
Zr   9.321659   8.292669  11.295324
Cu   9.274952   7.625742   8.345210
Zr   6.768338   8.103727   9.451884
Cu   7.084156   6.563873  12.921368
Zr   8.538578   5.023934  12.456846
Cu   9.741252   9.859792   9.095807
Zr  12.140465   9.210354   9.452053
Cu   9.945398   6.111279   9.836962
Cu   8.483699   9.212531  13.313957
Cu  12.519637   9.515322  12.375551
Cu  11.652081   7.322794  11.663093
Zr   8.457784  10.919015  10.960080
Zr  10.248954   7.941921  14.196880
