13
KNF: 
Cu  15.180479  11.027776   9.158475
Cu  13.902670   9.911526   6.882915
Cu  14.522176   8.634433   8.434352
Zr  12.140465   9.210354   9.452053
Cu  17.430891   9.672413   9.570160
Zr  16.988946  10.507871   7.042399
Zr  16.354071  12.900366   7.238715
Cu  13.289462  11.561080   7.846114
Zr  15.171735  13.656563   9.622544
Zr  12.079285  12.349044   9.881359
Zr  18.454783  12.421978   9.571014
Cu  13.989516  11.459849  11.258661
Zr  14.990719   9.353877  11.011092
