14
KNF: 
Zr   0.412153   0.393558   9.571014
Cu   1.619707   0.735096   7.113451
Cu  -0.611739  -2.356007   9.570160
Cu  -2.862151  -1.000644   9.158475
Zr  -1.053684  -1.520549   7.042399
Zr  -1.688559   0.871946   7.238715
Zr  -2.870895   1.628143   9.622544
Cu   1.575921  -1.491055   8.064490
Cu   3.526074   0.789478   8.934963
Cu   0.039321   2.642740   9.624396
Zr  -1.068226   1.022091  11.757696
Zr   2.443574  -1.109405  10.960080
Cu   0.021347  -0.947984  11.785223
Cu   2.032328   1.231361  11.862861
